%nprocshared=21
%mem=100MW
%chk=Ir2mphen.chk
# opt=calcall freq b3lyp/lanl2dz geom=connectivity

1

0 1
 C                 -1.54067700   -2.92281200   -0.73487200
 H                 -0.50210900   -3.21998900   -0.65490500
 C                 -2.58499800   -3.87792000   -0.80503000
 C                 -3.91021400   -3.44914800   -0.87134900
 C                 -4.19188300   -2.05465000   -0.85005300
 C                 -5.52804800   -1.50779300   -0.89218900
 H                 -6.36830800   -2.19531400   -0.95888100
 C                 -5.74016700   -0.14864700   -0.84460800
 H                 -6.75048100    0.25320300   -0.87534800
 C                 -4.63379000    0.77486900   -0.74292800
 C                 -4.79400500    2.18737500   -0.66356000
 C                 -3.67686200    3.01710700   -0.55079900
 C                 -2.38574200    2.40942500   -0.51519700
 H                 -1.47463300    2.99604000   -0.41782100
 C                 -3.31049000    0.25856100   -0.70758400
 C                 -3.08592900   -1.16159900   -0.77460000
 C                  3.04385500   -2.16173000   -2.30772900
 C                  3.39237200   -2.41045200   -0.78321500
 C                  2.39410700   -3.37722800   -2.99870300
 H                  1.57012200   -3.77919900   -2.39744100
 H                  3.11938900   -4.18135800   -3.17849900
 H                  1.98403700   -3.05474600   -3.96277000
 C                  4.19319700   -1.61088100   -3.15990600
 H                  3.84089900   -1.44586100   -4.18517500
 H                  5.03506500   -2.31647800   -3.19398500
 H                  4.54792000   -0.65381900   -2.76871300
 C                  3.74235400   -3.85697500   -0.41795000
 H                  3.91590100   -3.92818700    0.66234500
 H                  4.65734400   -4.18003900   -0.93305100
 H                  2.93322400   -4.54724300   -0.67455400
 C                  4.45078600   -1.43362400   -0.23374100
 H                  4.16156400   -0.39733400   -0.43772600
 H                  5.44358000   -1.62918800   -0.65948400
 H                  4.50883700   -1.55559900    0.85432000
 C                  2.93538600    2.92644800    0.07447400
 C                  1.75616400    3.85752000   -0.42003400
 C                  3.11183900    2.91961500    1.60596000
 H                  2.16602400    2.69001200    2.10645700
 H                  3.50226100    3.87724600    1.97485200
 H                  3.82221100    2.12791800    1.87066100
 C                  4.28133200    3.15481100   -0.62406500
 H                  5.01519300    2.43559100   -0.24152600
 H                  4.66053500    4.16693700   -0.42600200
 H                  4.20284500    3.01170300   -1.70542300
 C                  1.48084200    5.08781400    0.45261300
 H                  0.62806100    5.64531500    0.04529800
 H                  2.34942900    5.76027600    0.46918300
 H                  1.24010900    4.80030000    1.47976900
 C                  1.87346900    4.25776200   -1.90464600
 H                  2.04717900    3.37792500   -2.53398600
 H                  2.68774600    4.97470700   -2.07010700
 H                  0.93311400    4.72324800   -2.22391900
 B                  1.39849900   -1.11501700   -0.91819500
 B                  1.01677200    1.56739000   -0.37042700
 N                 -1.78116000   -1.59821700   -0.73737500
 N                 -2.20632400    1.07707100   -0.59042200
 O                  1.99038400   -1.10714600   -2.21465100
 O                  2.10253400   -2.05285100   -0.11078900
 O                  2.43339900    1.57243900   -0.30166200
 O                  0.58205500    2.93801500   -0.32235600
 Ir                -0.26867600   -0.01784500   -0.56376400
 B                  0.00802900   -0.41275600    1.36632400
 O                 -0.64518300   -1.49362900    2.02062600
 O                  0.77552500    0.30772300    2.30793200
 C                 -0.41934400   -1.38786500    3.49528800
 C                  0.89312300   -0.50215800    3.56159100
 C                 -1.66152200   -0.68709600    4.07974500
 C                 -0.27928600   -2.80535000    4.06047400
 C                  0.97460600    0.46188800    4.74949600
 C                  2.19004600   -1.32428500    3.43043300
 H                 -1.77149500    0.32406500    3.67134200
 H                 -1.61291200   -0.61966500    5.17413700
 H                 -2.55310800   -1.26382000    3.80678300
 H                 -1.22738800   -3.34337700    3.94105500
 H                 -0.03152400   -2.77911000    5.13047500
 H                  0.49681100   -3.36568100    3.53230000
 H                  1.89095500    1.05834400    4.67038400
 H                  1.00618400   -0.08914200    5.69936500
 H                  0.12541600    1.15100700    4.76927100
 H                  2.15448700   -1.97080200    2.54735500
 H                  2.37391100   -1.93396400    4.32473500
 H                  3.03014500   -0.63213700    3.30115000
 C                 -3.78723800    4.52435100   -0.46040200
 H                 -4.83303900    4.85097600   -0.46722800
 H                 -3.31946900    4.89855500    0.45936700
 H                 -3.27545900    5.00802100   -1.30282500
 H                 -2.33456800   -4.93386200   -0.80190200
 H                 -4.72656300   -4.16494400   -0.92973100
 H                 -5.79492000    2.61306300   -0.68802000

 1 2 1.0 3 1.5 55 1.5
 2
 3 4 1.5 87 1.0
 4 5 1.5 88 1.0
 5 6 1.5 16 1.5
 6 7 1.0 8 2.0
 7
 8 9 1.0 10 1.5
 9
 10 11 1.5 15 1.5
 11 12 1.5 89 1.0
 12 13 1.5 83 1.0
 13 14 1.0 56 1.5
 14
 15 16 1.5 56 1.5
 16 55 1.5
 17 18 1.0 19 1.0 23 1.0 57 1.0
 18 27 1.0 31 1.0 58 1.0
 19 20 1.0 21 1.0 22 1.0
 20
 21
 22
 23 24 1.0 25 1.0 26 1.0
 24
 25
 26
 27 28 1.0 29 1.0 30 1.0
 28
 29
 30
 31 32 1.0 33 1.0 34 1.0
 32
 33
 34
 35 36 1.0 37 1.0 41 1.0 59 1.0
 36 45 1.0 49 1.0 60 1.0
 37 38 1.0 39 1.0 40 1.0
 38
 39
 40
 41 42 1.0 43 1.0 44 1.0
 42
 43
 44
 45 46 1.0 47 1.0 48 1.0
 46
 47
 48
 49 50 1.0 51 1.0 52 1.0
 50
 51
 52
 53 57 1.0 58 1.0 61 1.0
 54 59 1.0 60 1.0 61 1.0
 55
 56
 57
 58
 59
 60
 61 62 1.0
 62 63 1.0 64 1.0
 63 65 1.0
 64 66 1.0
 65 66 1.0 67 1.0 68 1.0
 66 69 1.0 70 1.0
 67 71 1.0 72 1.0 73 1.0
 68 74 1.0 75 1.0 76 1.0
 69 77 1.0 78 1.0 79 1.0
 70 80 1.0 81 1.0 82 1.0
 71
 72
 73
 74
 75
 76
 77
 78
 79
 80
 81
 82
 83 84 1.0 85 1.0 86 1.0
 84
 85
 86
 87
 88
 89

