%nprocshared=21
%mem=100MW
%chk=3aIr.chk
# freq rb3lyp/lanl2dz scrf=check guess=tcheck geom=(connectivity,allcheck)
genchk

1

0 1
 C                 -1.76405400   -2.55015900   -0.45548200
 H                 -0.78096300   -3.00215800   -0.39790000
 C                 -2.93177100   -3.36085000   -0.45307900
 C                 -4.19228000   -2.73660500   -0.49976100
 C                 -4.23653000   -1.30256400   -0.52394800
 C                 -5.46385000   -0.54017700   -0.54713800
 H                 -6.41201000   -1.06861700   -0.56653400
 C                 -5.45905500    0.83679800   -0.53954500
 H                 -6.40351500    1.37193700   -0.55531100
 C                 -4.22660200    1.59048900   -0.50105800
 C                 -4.17352700    3.02460900   -0.45947900
 C                 -2.91002500    3.64132500   -0.40365500
 C                 -1.74243700    2.82714400   -0.39405100
 H                 -0.74411800    3.25476600   -0.34239500
 C                 -3.00723400    0.86074900   -0.49233800
 C                 -3.01239400   -0.58049900   -0.51617900
 C                  2.71343700   -2.57640700   -2.42455900
 C                  3.23941800   -2.76525600   -0.94275200
 C                  1.83140500   -3.74081300   -2.91876700
 H                  1.05412300   -3.98415400   -2.18473600
 H                  2.42109500   -4.64541200   -3.11620900
 H                  1.33651600   -3.43599900   -3.84817800
 C                  3.78970300   -2.24141300   -3.46395200
 H                  3.31752800   -2.09492000   -4.44283800
 H                  4.52269700   -3.05542200   -3.55306000
 H                  4.31439000   -1.31861400   -3.20318800
 C                  3.45454400   -4.21763800   -0.50216600
 H                  3.76526100   -4.23612200    0.54918700
 H                  4.24269800   -4.69561600   -1.09999400
 H                  2.53820300   -4.80835000   -0.59279600
 C                  4.48024600   -1.90787600   -0.62388400
 H                  4.29615900   -0.85737600   -0.87116400
 H                  5.36877000   -2.26353300   -1.16191600
 H                  4.67996400   -1.96647800    0.45271600
 C                  3.61404300    2.55380900   -0.21999500
 C                  2.53309900    3.65613300   -0.56690300
 C                  3.96636400    2.49036300    1.27996400
 H                  3.06264500    2.37710100    1.88727100
 H                  4.52208900    3.37932400    1.60629600
 H                  4.59173500    1.60667300    1.45336700
 C                  4.88752000    2.59936600   -1.07273800
 H                  5.54276100    1.76749000   -0.78855400
 H                  5.43675900    3.53729700   -0.91119400
 H                  4.66239100    2.50039500   -2.13828000
 C                  2.54531400    4.89086900    0.34205300
 H                  1.74772600    5.58110100    0.03937700
 H                  3.50254300    5.42465400    0.26634000
 H                  2.37807100    4.61521200    1.38675700
 C                  2.53679300    4.07289200   -2.05191600
 H                  2.50886900    3.19360600   -2.70500300
 H                  3.42085400    4.67184500   -2.30548600
 H                  1.64249900    4.67482800   -2.25472600
 B                  1.41546700   -1.23065400   -0.92569400
 B                  1.47823600    1.49356600   -0.43565500
 N                 -1.78986200   -1.20890300   -0.50302000
 N                 -1.78050600    1.48334800   -0.43984200
 O                  1.81845600   -1.38984600   -2.28579100
 O                  2.11297700   -2.19219400   -0.14075100
 O                  2.88048100    1.29470000   -0.53677800
 O                  1.25702800    2.91399700   -0.33994600
 Ir                -0.03556200    0.11133900   -0.47588200
 B                  0.36813600   -0.30370900    1.42482000
 O                 -0.28613000   -1.34964800    2.13389900
 O                  1.24305000    0.37701700    2.30410700
 C                  0.05838300   -1.25696100    3.58452800
 C                  1.41447100   -0.43670500    3.54827100
 C                 -1.09993100   -0.49758200    4.26153300
 C                  0.17287000   -2.68044600    4.14080500
 C                  1.63106000    0.52173000    4.72378000
 C                  2.65648200   -1.32108400    3.32286400
 H                 -1.18950400    0.51894700    3.86168900
 H                 -0.96697100   -0.43675500    5.34934700
 H                 -2.03680300   -1.02824200    4.05454600
 H                 -0.80725100   -3.17093100    4.09841900
 H                  0.50592000   -2.66843400    5.18772700
 H                  0.87554700   -3.27692900    3.55290600
 H                  2.56573600    1.07462400    4.57357400
 H                  1.70911300   -0.03062300    5.67034500
 H                  0.81869400    1.24941800    4.80588300
 H                  2.52512500   -1.95699800    2.44108900
 H                  2.87288600   -1.94619000    4.19911200
 H                  3.51922200   -0.67035600    3.13802700
 C                 -2.75579100   -4.86675600   -0.39607400
 H                 -1.69396000   -5.12738500   -0.34031300
 H                 -3.24831100   -5.29939100    0.48459800
 H                 -3.17370200   -5.36075000   -1.28353800
 C                 -5.48185600   -3.53345100   -0.51188200
 H                 -6.10195700   -3.29820000    0.36405500
 H                 -6.08064700   -3.30586700   -1.40428800
 H                 -5.29530300   -4.60907300   -0.50504900
 C                 -2.72528600    5.14665300   -0.34760500
 H                 -3.21127300    5.58442800    0.53453600
 H                 -1.66116800    5.39816400   -0.29832300
 H                 -3.14451700    5.64218900   -1.23364000
 C                 -5.45872500    3.82850500   -0.47154100
 H                 -6.04774800    3.62114600   -1.37536000
 H                 -6.09062200    3.57950500    0.39197200
 H                 -5.26634300    4.90265300   -0.44161400

 1 2 1.0 3 1.5 55 1.5
 2
 3 4 1.5 83 1.0
 4 5 1.5 87 1.0
 5 6 1.5 16 1.5
 6 7 1.0 8 2.0
 7
 8 9 1.0 10 1.5
 9
 10 11 1.5 15 1.5
 11 12 1.5 95 1.0
 12 13 1.5 91 1.0
 13 14 1.0 56 1.5
 14
 15 16 1.5 56 1.5
 16 55 1.5
 17 18 1.0 19 1.0 23 1.0 57 1.0
 18 27 1.0 31 1.0 58 1.0
 19 20 1.0 21 1.0 22 1.0
 20
 21
 22
 23 24 1.0 25 1.0 26 1.0
 24
 25
 26
 27 28 1.0 29 1.0 30 1.0
 28
 29
 30
 31 32 1.0 33 1.0 34 1.0
 32
 33
 34
 35 36 1.0 37 1.0 41 1.0 59 1.0
 36 45 1.0 49 1.0 60 1.0
 37 38 1.0 39 1.0 40 1.0
 38
 39
 40
 41 42 1.0 43 1.0 44 1.0
 42
 43
 44
 45 46 1.0 47 1.0 48 1.0
 46
 47
 48
 49 50 1.0 51 1.0 52 1.0
 50
 51
 52
 53 57 1.0 58 1.0 61 1.0
 54 59 1.0 60 1.0 61 1.0
 55
 56
 57
 58
 59
 60
 61 62 1.0
 62 63 1.0 64 1.0
 63 65 1.0
 64 66 1.0
 65 66 1.0 67 1.0 68 1.0
 66 69 1.0 70 1.0
 67 71 1.0 72 1.0 73 1.0
 68 74 1.0 75 1.0 76 1.0
 69 77 1.0 78 1.0 79 1.0
 70 80 1.0 81 1.0 82 1.0
 71
 72
 73
 74
 75
 76
 77
 78
 79
 80
 81
 82
 83 84 1.0 85 1.0 86 1.0
 84
 85
 86
 87 88 1.0 89 1.0 90 1.0
 88
 89
 90
 91 92 1.0 93 1.0 94 1.0
 92
 93
 94
 95 96 1.0 97 1.0 98 1.0
 96
 97
 98

