%nprocshared=21
%mem=100MW
%chk=Irdtpby1.chk
# freq rb3lyp/lanl2dz scrf=check guess=tcheck geom=(connectivity,allcheck)
genchk

1

0 1
 C                 -1.30160200   -2.54421000   -0.38385000
 H                 -0.29479900   -2.94127800   -0.35773100
 C                 -2.42490700   -3.38237200   -0.35744100
 C                 -3.72404000   -2.83095200   -0.34825700
 C                 -3.80708100   -1.42097500   -0.35236800
 C                 -3.85089800    1.62036300   -0.35955500
 C                 -3.81275800    3.03148800   -0.28937100
 C                 -2.53401300    3.62080900   -0.20252700
 C                 -1.38016900    2.82078100   -0.19750100
 H                 -0.37708300    3.23496900   -0.13802200
 C                 -2.67064800    0.85974400   -0.34236100
 C                 -2.64963900   -0.62559300   -0.38200800
 C                  3.03674300   -2.30012900   -2.70114800
 C                  3.58962900   -2.66274400   -1.26149800
 C                  2.14131100   -3.39600200   -3.31343000
 H                  1.37650400   -3.72560900   -2.60045100
 H                  2.72386400   -4.27092400   -3.63020100
 H                  1.63026300   -2.98100300   -4.18995100
 C                  4.09596100   -1.84675600   -3.71278300
 H                  3.60774500   -1.58573000   -4.65939800
 H                  4.82483300   -2.64545000   -3.90949300
 H                  4.62733400   -0.96149500   -3.35388600
 C                  3.80124500   -4.15772900   -0.99844800
 H                  4.12625000   -4.30208300    0.03875700
 H                  4.57813300   -4.56528200   -1.65992700
 H                  2.88053300   -4.73023200   -1.14475800
 C                  4.84252100   -1.85534900   -0.86793100
 H                  4.66039400   -0.78193900   -0.98367000
 H                  5.71753300   -2.14710200   -1.46332100
 H                  5.06449200   -2.04434300    0.18914800
 C                  3.97187600    2.60278400   -0.16078500
 C                  2.87482000    3.70752100   -0.44035500
 C                  4.36291100    2.48791300    1.32621600
 H                  3.47604000    2.34481200    1.95155800
 H                  4.92030700    3.36907000    1.67040200
 H                  4.99856300    1.60359600    1.45189200
 C                  5.22311700    2.68870600   -1.04318800
 H                  5.89216900    1.85378300   -0.80366400
 H                  5.76864100    3.62561300   -0.86384300
 H                  4.97171200    2.62371700   -2.10547800
 C                  2.90065400    4.91098400    0.50938600
 H                  2.08806100    5.60190600    0.25240300
 H                  3.85040300    5.45681000    0.42533400
 H                  2.76535000    4.59893900    1.54849300
 C                  2.83384800    4.17358900   -1.90989900
 H                  2.79544800    3.31607800   -2.59076700
 H                  3.70545700    4.78906200   -2.16699900
 H                  1.92916200    4.77331800   -2.06748400
 B                  1.77604900   -1.13325700   -1.03170800
 B                  1.83915200    1.53364700   -0.36186800
 N                 -1.40215500   -1.19299100   -0.41431000
 N                 -1.44003700    1.46620900   -0.26872800
 O                  2.14939000   -1.13638300   -2.40815300
 O                  2.48342100   -2.17998400   -0.37506600
 O                  3.23951500    1.34994400   -0.50552800
 O                  1.61090500    2.94653000   -0.20442200
 Ir                 0.33016600    0.14282800   -0.41096400
 B                  0.85742200   -0.39704900    1.42760700
 O                  0.25309600   -1.49409900    2.10435500
 O                  1.77930200    0.23216500    2.29693600
 C                  0.67734400   -1.48791600    3.53666000
 C                  2.02610300   -0.65767300    3.47425000
 C                 -0.44344700   -0.77800800    4.32165000
 C                  0.82689500   -2.94182600    3.99756100
 C                  2.30825900    0.22636600    4.69320600
 C                  3.25487700   -1.51850200    3.12151300
 H                 -0.55734000    0.26019800    3.98938000
 H                 -0.25061200   -0.78179400    5.40217000
 H                 -1.38901400   -1.30077200    4.13498200
 H                 -0.15265200   -3.43489600    3.98009700
 H                  1.21803200   -2.99170900    5.02298200
 H                  1.49704300   -3.49702300    3.33593300
 H                  3.22895900    0.79635000    4.52209900
 H                  2.44669500   -0.38396500    5.59619900
 H                  1.49883400    0.94028800    4.87047600
 H                  3.07260000   -2.09862300    2.21073400
 H                  3.52252300   -2.19689600    3.94212900
 H                  4.10432100   -0.85292300    2.92846200
 H                 -4.80574500    1.11193400   -0.42922900
 H                 -4.77817700   -0.94031200   -0.32282500
 H                 -2.26653100   -4.45361300   -0.33680400
 H                 -2.41114300    4.69535300   -0.14130000
 C                 -5.00764900   -3.68558700   -0.32113500
 C                 -5.81999000   -3.35232900    0.96568400
 H                 -6.11057900   -2.29531800    1.00420500
 H                 -6.73826200   -3.95337800    0.99586900
 H                 -5.23500700   -3.57372200    1.86722200
 C                 -4.69978500   -5.20362400   -0.32391700
 H                 -5.64089400   -5.76729700   -0.30893700
 H                 -4.14655300   -5.50630700   -1.22234200
 H                 -4.11965300   -5.50444100    0.55792200
 C                 -5.12236000    3.84625100   -0.30821500
 C                 -5.99415600    3.44254600    0.91820300
 H                 -6.93705600    4.00489200    0.90975900
 H                 -6.24112000    2.37391300    0.91026000
 H                 -5.47320800    3.66102300    1.85900300
 C                 -4.86260100    5.37156800   -0.24130600
 H                 -4.26939800    5.72239300   -1.09555400
 H                 -5.82021300    5.90651200   -0.26068600
 H                 -4.34272300    5.65719500    0.68211700
 C                 -5.90153600    3.53878300   -1.62160100
 H                 -5.31039300    3.81713400   -2.50323500
 H                 -6.15593700    2.47541100   -1.70866800
 H                 -6.83897400    4.10970600   -1.64316600
 C                 -5.86935000   -3.35809600   -1.57684900
 H                 -6.15256400   -2.29902300   -1.61395100
 H                 -5.32393300   -3.59340700   -2.49957800
 H                 -6.79309400   -3.95139600   -1.56389800

 1 2 1.0 3 1.5 51 1.5
 2
 3 4 1.5 81 1.0
 4 5 1.5 83 1.0
 5 12 1.5 80 1.0
 6 7 1.5 11 1.5 79 1.0
 7 8 1.5 92 1.0
 8 9 1.5 82 1.0
 9 10 1.0 52 1.5
 10
 11 12 1.0 52 1.5
 12 51 1.5
 13 14 1.0 15 1.0 19 1.0 53 1.0
 14 23 1.0 27 1.0 54 1.0
 15 16 1.0 17 1.0 18 1.0
 16
 17
 18
 19 20 1.0 21 1.0 22 1.0
 20
 21
 22
 23 24 1.0 25 1.0 26 1.0
 24
 25
 26
 27 28 1.0 29 1.0 30 1.0
 28
 29
 30
 31 32 1.0 33 1.0 37 1.0 55 1.0
 32 41 1.0 45 1.0 56 1.0
 33 34 1.0 35 1.0 36 1.0
 34
 35
 36
 37 38 1.0 39 1.0 40 1.0
 38
 39
 40
 41 42 1.0 43 1.0 44 1.0
 42
 43
 44
 45 46 1.0 47 1.0 48 1.0
 46
 47
 48
 49 53 1.0 54 1.0 57 1.0
 50 55 1.0 56 1.0 57 1.0
 51
 52
 53
 54
 55
 56
 57 58 1.0
 58 59 1.0 60 1.0
 59 61 1.0
 60 62 1.0
 61 62 1.0 63 1.0 64 1.0
 62 65 1.0 66 1.0
 63 67 1.0 68 1.0 69 1.0
 64 70 1.0 71 1.0 72 1.0
 65 73 1.0 74 1.0 75 1.0
 66 76 1.0 77 1.0 78 1.0
 67
 68
 69
 70
 71
 72
 73
 74
 75
 76
 77
 78
 79
 80
 81
 82
 83 84 1.0 88 1.0 105 1.0
 84 85 1.0 86 1.0 87 1.0
 85
 86
 87
 88 89 1.0 90 1.0 91 1.0
 89
 90
 91
 92 93 1.0 97 1.0 101 1.0
 93 94 1.0 95 1.0 96 1.0
 94
 95
 96
 97 98 1.0 99 1.0 100 1.0
 98
 99
 100
 101 102 1.0 103 1.0 104 1.0
 102
 103
 104
 105 106 1.0 107 1.0 108 1.0
 106
 107
 108

