%nprocshared=21
%mem=100MW
%chk=IRCODOMe2.chk
# freq rb3lyp/lanl2dz scrf=check guess=tcheck geom=(connectivity,allcheck)
genchk

1

0 1
 Rh                 0.66271000   -0.65377100   -0.85005200
 C                  1.72644900   -1.68720200   -2.71862700
 C                  1.15090300   -0.34279000   -2.95046400
 C                 -0.31153800   -0.51423500   -3.07659000
 C                 -0.61305400   -1.84259300   -2.71531900
 C                  0.65255800   -2.57070500   -2.48919600
 C                  3.18922400   -2.03279200   -2.81672600
 H                  3.45911900   -2.87725700   -2.17010800
 H                  3.44916100   -2.31378400   -3.84968100
 H                  3.81410700   -1.17914700   -2.54229600
 C                  1.90906400    0.84145300   -3.49500100
 H                  2.87968100    0.94698500   -3.00203000
 H                  2.07158500    0.73969800   -4.58058400
 H                  1.34999800    1.76467100   -3.31502800
 C                 -1.24908400    0.56195600   -3.55691300
 H                 -1.11718400    1.48091600   -2.97660500
 H                 -1.05309600    0.79861200   -4.61436000
 H                 -2.29610100    0.24847700   -3.48018800
 C                 -1.96903300   -2.49649700   -2.63954700
 H                 -2.75368300   -1.83695000   -3.02191100
 H                 -1.99219300   -3.42226200   -3.23260800
 H                 -2.24175900   -2.76090400   -1.60881600
 C                  0.73782600   -4.05066400   -2.21376700
 H                 -0.02446400   -4.37477800   -1.49415000
 H                  0.57733000   -4.63588500   -3.13315000
 H                  1.71946000   -4.33291600   -1.81540800
 B                  0.39063300    1.27006900   -0.24452900
 O                 -0.03622700    2.30406100   -1.10721300
 O                  0.58759600    1.80640100    1.05395900
 C                  0.08673500    3.63701500   -0.43408300
 C                  0.15763900    3.24566000    1.10727800
 C                  1.38102800    4.26965200   -0.98260800
 C                 -1.13365900    4.47642300   -0.83175800
 C                  1.20249800    4.02398600    1.91889600
 C                 -1.19740000    3.27604300    1.83415000
 H                  2.24742100    3.62908000   -0.78800300
 H                  1.56281200    5.26171400   -0.54991100
 H                  1.28651300    4.37948000   -2.06933900
 H                 -1.12485500    4.63945400   -1.91610800
 H                 -1.11432200    5.45746500   -0.33809400
 H                 -2.06529800    3.96775600   -0.57088900
 H                  1.22901400    3.63432000    2.94327000
 H                  0.94035100    5.08948900    1.96685900
 H                  2.20494100    3.93296100    1.49222400
 H                 -1.95189100    2.68399300    1.31159700
 H                 -1.56164300    4.30596000    1.94863100
 H                 -1.06771300    2.84431400    2.83402300
 B                  2.42162200   -0.09604400   -0.00699500
 O                  3.37287100    0.79730000   -0.56170300
 O                  2.95677300   -0.62536000    1.19477800
 C                  4.64570500    0.78559100    0.22807000
 C                  4.19861200    0.11127800    1.59725400
 C                  5.66078300   -0.05042600   -0.57423100
 C                  5.13644600    2.23465300    0.34415800
 C                  5.18895500   -0.90842900    2.17462500
 C                  3.77435500    1.11733800    2.68345400
 H                  5.32225000   -1.08431500   -0.69669900
 H                  6.64444100   -0.06180100   -0.08818600
 H                  5.77417600    0.39089100   -1.57133200
 H                  5.35240400    2.62528400   -0.65717100
 H                  6.05639600    2.29361200    0.94128500
 H                  4.38091000    2.87865200    0.80207400
 H                  4.76199600   -1.35735300    3.07912200
 H                  6.13455900   -0.42248800    2.45049800
 H                  5.40255800   -1.71444900    1.46733000
 H                  2.97703000    1.77020500    2.32034000
 H                  4.62114600    1.72797800    3.02183600
 H                  3.38293400    0.56418200    3.54511500
 C                 -0.61750100   -1.94438400    3.26750000
 C                 -0.25199600   -2.70070400    1.93691500
 C                  0.46617200   -0.96017100    3.73399900
 H                  0.82004400   -0.33201400    2.91241900
 H                  1.32450800   -1.49861900    4.15492800
 H                  0.04402900   -0.31419100    4.51258300
 C                 -1.10098000   -2.84016100    4.41071800
 H                 -1.36324000   -2.21824600    5.27383800
 H                 -0.30799300   -3.53468000    4.71770800
 H                 -1.98627000   -3.41695600    4.12907200
 C                  1.20561700   -3.11450300    1.78633000
 H                  1.35360300   -3.59041000    0.81027800
 H                  1.45438000   -3.85006100    2.56455400
 H                  1.88921300   -2.26781700    1.85263100
 C                 -1.19899700   -3.87740600    1.62714900
 H                 -2.25290500   -3.60174900    1.74564300
 H                 -0.98567900   -4.73064500    2.28217700
 H                 -1.04344000   -4.19484400    0.59107800
 B                 -1.70954100   -0.91099600    1.44060100
 O                 -1.79703400   -1.10948200    2.81158000
 O                 -0.60966400   -1.62235200    0.89499200
 B                 -3.03254900   -0.19694300    0.67602900
 O                 -3.38827200    1.14935700    0.60610100
 O                 -4.06605700   -1.01859200    0.21484400
 C                 -4.86632700    1.25221400    0.32041100
 C                 -5.18489300   -0.16217800   -0.32825400
 C                 -5.53600700    1.47312700    1.68934500
 C                 -5.08898400    2.45943000   -0.59590700
 C                 -6.50912300   -0.79944900    0.10633900
 C                 -5.04708300   -0.18746200   -1.85938200
 H                 -5.34285100    0.63633000    2.36948700
 H                 -6.62065400    1.60140200    1.58936200
 H                 -5.11929300    2.37774400    2.14560800
 H                 -4.80315200    3.37595700   -0.06749500
 H                 -6.14717100    2.54350400   -0.87628900
 H                 -4.48766200    2.39334900   -1.50630900
 H                 -6.60218900   -1.79044100   -0.35188700
 H                 -7.36119700   -0.18893500   -0.22077700
 H                 -6.56199400   -0.92455400    1.19097000
 H                 -4.09162200    0.23965300   -2.17883200
 H                 -5.85867900    0.37130900   -2.34113800
 H                 -5.08998200   -1.22673800   -2.20238700

 1 27 1.0 48 1.0
 2 3 1.0 6 1.5 7 1.0
 3 4 1.0 11 1.0
 4 5 1.5 15 1.0
 5 6 1.0 19 1.0
 6 23 1.0
 7 8 1.0 9 1.0 10 1.0
 8
 9
 10
 11 12 1.0 13 1.0 14 1.0
 12
 13
 14
 15 16 1.0 17 1.0 18 1.0
 16
 17
 18
 19 20 1.0 21 1.0 22 1.0
 20
 21
 22
 23 24 1.0 25 1.0 26 1.0
 24
 25
 26
 27 28 1.0 29 1.0
 28 30 1.0
 29 31 1.0
 30 31 1.0 32 1.0 33 1.0
 31 34 1.0 35 1.0
 32 36 1.0 37 1.0 38 1.0
 33 39 1.0 40 1.0 41 1.0
 34 42 1.0 43 1.0 44 1.0
 35 45 1.0 46 1.0 47 1.0
 36
 37
 38
 39
 40
 41
 42
 43
 44
 45
 46
 47
 48 49 1.0 50 1.0
 49 51 1.0
 50 52 1.0
 51 52 1.0 53 1.0 54 1.0
 52 55 1.0 56 1.0
 53 57 1.0 58 1.0 59 1.0
 54 60 1.0 61 1.0 62 1.0
 55 63 1.0 64 1.0 65 1.0
 56 66 1.0 67 1.0 68 1.0
 57
 58
 59
 60
 61
 62
 63
 64
 65
 66
 67
 68
 69 70 1.0 71 1.0 75 1.0 88 1.0
 70 79 1.0 83 1.0
 71 72 1.0 73 1.0 74 1.0
 72
 73
 74
 75 76 1.0 77 1.0 78 1.0
 76
 77
 78
 79 80 1.0 81 1.0 82 1.0
 80
 81
 82
 83 84 1.0 85 1.0 86 1.0
 84
 85
 86
 87 88 1.0 89 1.0 90 1.0
 88
 89
 90 91 1.0 92 1.0
 91 93 1.0
 92 94 1.0
 93 94 1.0 95 1.0 96 1.0
 94 97 1.0 98 1.0
 95 99 1.0 100 1.0 101 1.0
 96 102 1.0 103 1.0 104 1.0
 97 105 1.0 106 1.0 107 1.0
 98 108 1.0 109 1.0 110 1.0
 99
 100
 101
 102
 103
 104
 105
 106
 107
 108
 109
 110

