%nprocshared=20
%mem=4GB
%chk=RuCpstar.chk
# opt=tight freq=noraman b3lyp/6-311+g(d,p) geom=connectivity int=ultrafine

Ru-1

0 1
 O                 -2.97540800    0.61093900   -0.21147700
 O                 -1.89021900    0.26442600    1.80163600
 O                  0.30251400    1.38215600   -2.00181800
 O                  0.48616900    2.10445700    0.17619200
 O                  1.73747300   -0.69699300    1.93505200
 O                  2.91096500   -0.12399100    0.02726700
 B                 -1.78902300    0.16779700    0.39494100
 B                  0.19712700    0.97721100   -0.64088000
 B                  1.65744300   -0.49952200    0.54050400
 C                 -0.99714000   -1.68258800   -2.18659800
 C                  0.44474900   -1.96163000   -2.11985700
 C                  0.64331000   -3.02327900   -1.14777100
 C                 -0.65164100   -3.38491600   -0.62467600
 C                 -1.66523800   -2.58028500   -1.25981700
 C                 -1.67659600   -0.79729000   -3.19477400
 H                 -1.84753000   -1.34985700   -4.13247600
 H                 -1.06540900    0.08207800   -3.41195100
 H                 -2.64403100   -0.44422300   -2.82318400
 C                  1.48815400   -1.41419500   -3.05354200
 H                  1.56968200   -2.04944600   -3.94979100
 H                  2.47110300   -1.37102000   -2.57288900
 H                  1.22866700   -0.40017300   -3.36532800
 C                  1.94091700   -3.73808900   -0.86798100
 H                  2.04202900   -4.62932800   -1.50661300
 H                  2.00610900   -4.07263300    0.17444800
 H                  2.80103600   -3.09127900   -1.06559600
 C                 -0.89698000   -4.44347900    0.41819900
 H                 -1.02841100   -5.42948300   -0.05300800
 H                 -1.79999400   -4.23662000    1.00325800
 H                 -0.05551400   -4.52319600    1.11572000
 C                 -3.15716500   -2.74715900   -1.12629600
 H                 -3.54891900   -3.39778300   -1.92328200
 H                 -3.67053200   -1.78295700   -1.19936300
 H                 -3.43072800   -3.20646000   -0.16870900
 C                 -3.90728900    1.14750800    0.84772200
 C                 -3.33141400    0.48257500    2.16932300
 C                 -3.77133700    2.67845000    0.82600600
 H                 -3.99626300    3.04196900   -0.18325100
 H                 -2.75476700    2.98807200    1.08196600
 H                 -4.47091400    3.14915900    1.52806200
 C                 -5.33231100    0.72949100    0.46932800
 H                 -5.60723900    1.19780000   -0.48276600
 H                 -6.05024900    1.05808600    1.23269000
 H                 -5.42034300   -0.35399000    0.35082500
 C                 -3.92181700   -0.90795000    2.47357800
 H                 -3.32634100   -1.37506700    3.26607900
 H                 -3.88369900   -1.55840700    1.59311600
 H                 -4.96287200   -0.83934700    2.81368200
 C                 -3.36668400    1.36559200    3.42065500
 H                 -2.90619100    0.82640900    4.25621400
 H                 -4.40025100    1.61376600    3.69822100
 H                 -2.80651100    2.29230600    3.27287900
 C                  0.96056300    2.72316000   -2.09600700
 C                  0.66511000    3.33313200   -0.66415300
 C                  0.33044300    3.48001600   -3.27164900
 H                  0.55698200    2.95387700   -4.20652100
 H                  0.73773500    4.49740700   -3.34676500
 H                 -0.75690800    3.54214800   -3.17589400
 C                  2.45612100    2.45963800   -2.36181200
 H                  2.89488900    1.84595000   -1.56888400
 H                  3.02013600    3.39674300   -2.45402700
 H                  2.55451700    1.90747100   -3.30398900
 C                 -0.65750500    4.11642700   -0.59200300
 H                 -0.87503200    4.34605500    0.45732800
 H                 -1.48805100    3.52738700   -0.99268300
 H                 -0.59528200    5.06140700   -1.14629100
 C                  1.80529800    4.16016800   -0.05823600
 H                  1.52730800    4.47743700    0.95377000
 H                  1.99762000    5.05958700   -0.65859000
 H                  2.73038200    3.58149400    0.00828700
 C                  3.02803500   -0.10416300    2.43734100
 C                  3.93372800   -0.17337900    1.13560000
 C                  3.50934100   -0.95433400    3.61694200
 H                  2.77344000   -0.89401700    4.42661500
 H                  4.47068800   -0.58467000    3.99928400
 H                  3.62108400   -2.00677900    3.34181400
 C                  2.69492500    1.32791900    2.89420100
 H                  1.93990800    1.27309300    3.68640000
 H                  2.26601100    1.91296100    2.07515800
 H                  3.58088900    1.84164500    3.28965200
 C                  4.89077400    1.00779800    0.94649300
 H                  5.43005600    0.89602500   -0.00149500
 H                  5.62876000    1.04319000    1.75893200
 H                  4.35316600    1.95927400    0.92295400
 C                  4.68364200   -1.50795000    0.97341600
 H                  5.10908600   -1.55527600   -0.03573200
 H                  4.00861300   -2.36096200    1.09992800
 H                  5.50209300   -1.59979000    1.69832600
 Ru                -0.20867400   -1.03096700   -0.19740800

 1 7 1.0 35 1.0
 2 7 1.0 36 1.0
 3 8 1.0 53 1.0
 4 8 1.0 54 1.0
 5 9 1.0 71 1.0
 6 9 1.0 72 1.0
 7 89 1.0
 8 89 1.0
 9 89 1.0
 10 11 1.0 14 1.0 15 1.0
 11 12 1.0 19 1.0
 12 13 1.5 23 1.0
 13 14 1.5 27 1.0
 14 31 1.0
 15 16 1.0 17 1.0 18 1.0
 16
 17
 18
 19 20 1.0 21 1.0 22 1.0
 20
 21
 22
 23 24 1.0 25 1.0 26 1.0
 24
 25
 26
 27 28 1.0 29 1.0 30 1.0
 28
 29
 30
 31 32 1.0 33 1.0 34 1.0
 32
 33
 34
 35 36 1.0 37 1.0 41 1.0
 36 45 1.0 49 1.0
 37 38 1.0 39 1.0 40 1.0
 38
 39
 40
 41 42 1.0 43 1.0 44 1.0
 42
 43
 44
 45 46 1.0 47 1.0 48 1.0
 46
 47
 48
 49 50 1.0 51 1.0 52 1.0
 50
 51
 52
 53 54 1.0 55 1.0 59 1.0
 54 63 1.0 67 1.0
 55 56 1.0 57 1.0 58 1.0
 56
 57
 58
 59 60 1.0 61 1.0 62 1.0
 60
 61
 62
 63 64 1.0 65 1.0 66 1.0
 64
 65
 66
 67 68 1.0 69 1.0 70 1.0
 68
 69
 70
 71 72 1.0 73 1.0 77 1.0
 72 81 1.0 85 1.0
 73 74 1.0 75 1.0 76 1.0
 74
 75
 76
 77 78 1.0 79 1.0 80 1.0
 78
 79
 80
 81 82 1.0 83 1.0 84 1.0
 82
 83
 84
 85 86 1.0 87 1.0 88 1.0
 86
 87
 88
 89

